personal_ws-1.1 en 1
aem
AEM
backend
Backend
bitbucket
Bitbucket
deadgrep
downcase
externalities
Externalities
js
JS
org
pcf
PCF
ReactJS
spotify
Spotify
todo
Todo
TODO
ts
TypeScript
xml
XML
